Version 4
SHEET 1 900 964
WIRE -192 -192 -464 -192
WIRE -32 -192 -192 -192
WIRE 16 -192 -32 -192
WIRE 96 -192 16 -192
WIRE 176 -192 96 -192
WIRE 224 -192 176 -192
WIRE 384 -192 336 -192
WIRE 496 -192 448 -192
WIRE 496 -144 496 -192
WIRE 224 -112 224 -192
WIRE 336 -112 336 -192
WIRE -32 -16 -32 -192
WIRE 336 16 336 -32
WIRE 496 16 496 -80
WIRE 496 16 336 16
WIRE -464 32 -464 -192
WIRE -368 32 -464 32
WIRE -272 32 -368 32
WIRE -160 32 -272 32
WIRE 112 32 96 32
WIRE 224 32 224 -32
WIRE 224 32 192 32
WIRE -160 112 -272 112
WIRE 96 112 80 112
WIRE 112 112 96 112
WIRE 224 112 224 32
WIRE 224 112 192 112
WIRE 224 144 224 112
WIRE -160 192 -368 192
WIRE 176 192 96 192
WIRE 176 224 176 192
WIRE -192 272 -288 272
WIRE -160 272 -192 272
WIRE 224 272 224 240
WIRE 224 272 96 272
WIRE 224 320 224 272
WIRE -192 368 -192 272
WIRE -288 384 -288 272
WIRE -288 480 -288 448
WIRE -192 480 -192 448
WIRE -192 480 -288 480
WIRE -32 480 -32 320
WIRE -32 480 -192 480
WIRE 224 480 224 400
WIRE 224 480 -32 480
WIRE -32 528 -32 480
FLAG -32 528 0
FLAG -192 -128 0
FLAG 176 -128 0
FLAG -368 96 0
FLAG 336 16 0
FLAG -464 112 0
FLAG -368 272 0
FLAG 16 -128 0
FLAG 96 -128 0
SYMBOL PowerProducts\\LT3750 -32 144 R0
SYMATTR InstName U1
SYMBOL res 208 16 R90
WINDOW 0 0 56 VBottom 2
WINDOW 3 32 56 VTop 2
SYMATTR InstName R1
SYMATTR Value 60.4K
SYMBOL res 208 96 R90
WINDOW 0 0 56 VBottom 2
WINDOW 3 32 56 VTop 2
SYMATTR InstName R2
SYMATTR Value 43K
SYMBOL nmos 176 144 R0
SYMATTR InstName M1
SYMATTR Value PHM21NQ15T
SYMBOL res 208 304 R0
SYMATTR InstName R3
SYMATTR Value 8m
SYMBOL res -208 352 R0
SYMATTR InstName R4
SYMATTR Value 2.49K
SYMBOL cap -304 384 R0
SYMATTR InstName C3
SYMATTR Value 100pF
SYMBOL res -288 16 R0
SYMATTR InstName R5
SYMATTR Value 100K
SYMBOL cap -384 32 R0
SYMATTR InstName C4
SYMATTR Value 10µ
SYMATTR SpiceLine V=25 Irms=8.06 Rser=0.00577565 Lser=0 mfg="KEMET" pn="C1210C106K3PAC" type="X5R"
SYMBOL diode 384 -176 R270
WINDOW 0 32 32 VTop 2
WINDOW 3 0 32 VBottom 2
SYMATTR InstName D1
SYMBOL cap 480 -144 R0
SYMATTR InstName C5
SYMATTR Value 2.5mF
SYMBOL voltage -464 16 R0
WINDOW 123 0 0 Left 2
WINDOW 39 0 0 Left 2
SYMATTR InstName V1
SYMATTR Value 6V
SYMBOL voltage -368 176 R0
WINDOW 123 0 0 Left 2
WINDOW 39 0 0 Left 2
SYMATTR InstName V2
SYMATTR Value PULSE(0 3.3V 0 0.1 0 50 0 1)
SYMBOL cap -208 -192 R0
SYMATTR InstName C1
SYMATTR Value 10µ
SYMATTR SpiceLine V=25 Irms=8.06 Rser=0.00577565 Lser=0 mfg="KEMET" pn="C1210C106K3PAC" type="X5R"
SYMBOL polcap 160 -192 R0
WINDOW 3 24 56 Left 2
SYMATTR InstName C2
SYMATTR Value 56µ
SYMATTR Description Capacitor
SYMATTR Type cap
SYMATTR SpiceLine V=25 Irms=235m Rser=0.44 Lser=0 mfg="Nichicon" pn="UPL1E560MPH" type="Al electrolytic"
SYMBOL polcap 80 -192 R0
WINDOW 3 24 56 Left 2
SYMATTR InstName C6
SYMATTR Value 56µ
SYMATTR Description Capacitor
SYMATTR Type cap
SYMATTR SpiceLine V=25 Irms=235m Rser=0.44 Lser=0 mfg="Nichicon" pn="UPL1E560MPH" type="Al electrolytic"
SYMBOL polcap 0 -192 R0
WINDOW 3 24 56 Left 2
SYMATTR InstName C7
SYMATTR Value 56µ
SYMATTR Description Capacitor
SYMATTR Type cap
SYMATTR SpiceLine V=25 Irms=235m Rser=0.44 Lser=0 mfg="Nichicon" pn="UPL1E560MPH" type="Al electrolytic"
SYMBOL ind2 208 -128 R0
SYMATTR InstName L1
SYMATTR Value 10µ
SYMATTR Type ind
SYMBOL ind2 352 -16 R180
WINDOW 0 36 80 Left 2
WINDOW 3 36 40 Left 2
SYMATTR InstName L2
SYMATTR Value 1000µ
SYMATTR Type ind
TEXT -498 552 Left 2 !.tran 0 10 4 4
TEXT 232 -120 Left 2 !K1 L1 L2 1
